<?xml version="1.0" encoding="UTF-8"?>

<!-- generated on 2026-03-11T01:58:30.192669+05:30 by Eclipse SUMO netconvert 1.26.0
<netconvertConfiguration xmlns:xsi="http://www.w3.org/2001/XMLSchema-instance" xsi:noNamespaceSchemaLocation="http://sumo.dlr.de/xsd/netconvertConfiguration.xsd">

    <input>
        <node-files value="/Users/deepaksilaych/btp/sumo_config/city_nodes.nod.xml"/>
        <edge-files value="/Users/deepaksilaych/btp/sumo_config/city_edges.edg.xml"/>
        <type-files value="/Users/deepaksilaych/btp/sumo_config/city_types.typ.xml"/>
    </input>

    <output>
        <output-file value="/Users/deepaksilaych/btp/sumo_config/city_network.net.xml"/>
    </output>

    <junctions>
        <no-turnarounds value="true"/>
        <junctions.join value="false"/>
    </junctions>

</netconvertConfiguration>
-->

<net version="1.20" junctionCornerDetail="5" limitTurnSpeed="5.50" xmlns:xsi="http://www.w3.org/2001/XMLSchema-instance" xsi:noNamespaceSchemaLocation="http://sumo.dlr.de/xsd/net_file.xsd">

    <location netOffset="300.00,200.00" convBoundary="0.00,0.00,1400.00,800.00" origBoundary="-300.00,-200.00,1100.00,600.00" projParameter="!"/>

    <type id="arterial" numLanes="3" speed="13.89"/>
    <type id="collector" numLanes="2" speed="11.11"/>
    <type id="local" numLanes="1" speed="8.33"/>

    <edge id=":J1_0" function="internal">
        <lane id=":J1_0_0" index="0" speed="13.89" length="27.20" shape="313.60,608.00 286.40,608.00"/>
        <lane id=":J1_0_1" index="1" speed="13.89" length="27.20" shape="313.60,604.80 286.40,604.80"/>
        <lane id=":J1_0_2" index="2" speed="13.89" length="27.20" shape="313.60,601.60 286.40,601.60"/>
    </edge>
    <edge id=":J1_3" function="internal">
        <lane id=":J1_3_0" index="0" speed="10.88" length="6.03" shape="313.60,601.60 307.62,600.89"/>
        <lane id=":J1_3_1" index="1" speed="10.36" length="5.01" shape="313.60,601.60 308.64,600.89"/>
    </edge>
    <edge id=":J1_13" function="internal">
        <lane id=":J1_13_0" index="0" speed="10.88" length="21.12" shape="307.62,600.89 305.55,600.65 299.80,597.80 296.35,593.05 295.20,586.40"/>
        <lane id=":J1_13_1" index="0" speed="10.36" length="19.50" shape="308.64,600.89 306.95,600.65 302.20,597.80 299.35,593.05 298.40,586.40"/>
    </edge>
    <edge id=":J1_5" function="internal">
        <lane id=":J1_5_0" index="0" speed="6.51" length="9.03" shape="308.00,586.40 308.35,588.85 309.40,590.60 311.15,591.65 313.60,592.00"/>
        <lane id=":J1_5_1" index="1" speed="8.00" length="14.19" shape="304.80,586.40 305.35,590.25 307.00,593.00 309.75,594.65 313.60,595.20"/>
    </edge>
    <edge id=":J1_7" function="internal">
        <lane id=":J1_7_0" index="0" speed="10.88" length="27.14" shape="301.60,586.40 300.65,594.45 297.80,600.20 293.05,603.65 286.40,604.80"/>
        <lane id=":J1_7_1" index="1" speed="10.36" length="24.51" shape="301.60,586.40 300.65,593.05 297.80,597.80 293.05,600.65 286.40,601.60"/>
    </edge>
    <edge id=":J1_9" function="internal">
        <lane id=":J1_9_0" index="0" speed="6.51" length="9.03" shape="286.40,592.00 288.85,591.65 290.60,590.60 291.65,588.85 292.00,586.40"/>
    </edge>
    <edge id=":J1_10" function="internal">
        <lane id=":J1_10_0" index="0" speed="13.89" length="27.20" shape="286.40,592.00 313.60,592.00"/>
        <lane id=":J1_10_1" index="1" speed="13.89" length="27.20" shape="286.40,595.20 313.60,595.20"/>
        <lane id=":J1_10_2" index="2" speed="13.89" length="27.20" shape="286.40,598.40 313.60,598.40"/>
    </edge>
    <edge id=":J11_0" function="internal">
        <lane id=":J11_0_0" index="0" speed="6.51" length="9.03" shape="895.20,613.60 894.85,611.15 893.80,609.40 892.05,608.35 889.60,608.00"/>
    </edge>
    <edge id=":J11_1" function="internal">
        <lane id=":J11_1_0" index="0" speed="11.11" length="27.20" shape="895.20,613.60 895.20,586.40"/>
        <lane id=":J11_1_1" index="1" speed="11.11" length="27.20" shape="898.40,613.60 898.40,586.40"/>
    </edge>
    <edge id=":J11_3" function="internal">
        <lane id=":J11_3_0" index="0" speed="9.72" length="2.20" shape="898.40,613.60 899.15,611.53"/>
    </edge>
    <edge id=":J11_4" function="internal">
        <lane id=":J11_4_0" index="0" speed="12.50" length="1.99" shape="898.40,613.60 899.17,611.76"/>
    </edge>
    <edge id=":J11_26" function="internal">
        <lane id=":J11_26_0" index="0" speed="9.72" length="51.70" shape="899.15,611.53 901.07,606.25 909.10,598.97 922.47,591.74 941.20,584.58"/>
    </edge>
    <edge id=":J11_27" function="internal">
        <lane id=":J11_27_0" index="0" speed="12.50" length="48.52" shape="899.17,611.76 901.18,606.95 909.53,602.20 923.44,599.35 942.92,598.40"/>
    </edge>
    <edge id=":J11_5" function="internal">
        <lane id=":J11_5_0" index="0" speed="12.50" length="39.42" shape="942.92,608.00 926.24,608.35 914.33,609.40 907.18,611.15 904.80,613.60"/>
    </edge>
    <edge id=":J11_6" function="internal">
        <lane id=":J11_6_0" index="0" speed="13.89" length="53.32" shape="942.92,608.00 889.60,608.00"/>
        <lane id=":J11_6_1" index="1" speed="13.89" length="53.32" shape="942.92,604.80 889.60,604.80"/>
        <lane id=":J11_6_2" index="2" speed="13.89" length="53.32" shape="942.92,601.60 889.60,601.60"/>
    </edge>
    <edge id=":J11_9" function="internal">
        <lane id=":J11_9_0" index="0" speed="12.50" length="14.39" shape="942.92,601.60 928.55,600.90"/>
    </edge>
    <edge id=":J11_10" function="internal">
        <lane id=":J11_10_0" index="0" speed="7.44" length="2.05" shape="942.92,601.60 941.02,600.83"/>
    </edge>
    <edge id=":J11_28" function="internal">
        <lane id=":J11_28_0" index="0" speed="12.50" length="36.12" shape="928.55,600.90 923.44,600.65 909.53,597.80 901.18,593.05 898.40,586.40"/>
    </edge>
    <edge id=":J11_29" function="internal">
        <lane id=":J11_29_0" index="0" speed="7.44" length="21.65" shape="941.02,600.83 937.37,599.36 935.11,594.22 936.33,588.51 941.20,584.58"/>
    </edge>
    <edge id=":J11_11" function="internal">
        <lane id=":J11_11_0" index="0" speed="5.98" length="14.58" shape="942.21,587.62 937.32,589.53 935.81,590.90 937.68,591.73 942.92,592.00"/>
    </edge>
    <edge id=":J11_12" function="internal">
        <lane id=":J11_12_0" index="0" speed="9.72" length="47.57" shape="942.21,587.62 925.84,593.92 914.15,600.35 907.14,606.91 904.80,613.60"/>
    </edge>
    <edge id=":J11_13" function="internal">
        <lane id=":J11_13_0" index="0" speed="11.11" length="55.55" shape="942.21,587.62 934.10,590.97 919.75,596.80 903.48,602.34 889.60,604.80"/>
    </edge>
    <edge id=":J11_14" function="internal">
        <lane id=":J11_14_0" index="0" speed="9.72" length="48.97" shape="942.21,587.62 925.62,592.53 911.64,594.84 902.00,593.23 898.40,586.40"/>
    </edge>
    <edge id=":J11_15" function="internal">
        <lane id=":J11_15_0" index="0" speed="9.72" length="39.40" shape="904.80,586.40 907.07,590.15 913.90,591.10 925.27,589.24 941.20,584.58"/>
    </edge>
    <edge id=":J11_16" function="internal">
        <lane id=":J11_16_0" index="0" speed="12.50" length="40.90" shape="904.80,586.40 907.18,590.25 914.33,593.00 926.24,594.65 942.92,595.20"/>
    </edge>
    <edge id=":J11_17" function="internal">
        <lane id=":J11_17_0" index="0" speed="11.11" length="27.20" shape="904.80,586.40 904.80,613.60"/>
        <lane id=":J11_17_1" index="1" speed="11.11" length="27.20" shape="901.60,586.40 901.60,613.60"/>
    </edge>
    <edge id=":J11_19" function="internal">
        <lane id=":J11_19_0" index="0" speed="9.84" length="6.30" shape="901.60,586.40 900.89,592.66"/>
    </edge>
    <edge id=":J11_30" function="internal">
        <lane id=":J11_30_0" index="0" speed="9.84" length="15.70" shape="900.89,592.66 900.85,593.05 898.60,597.80 894.85,600.65 889.60,601.60"/>
    </edge>
    <edge id=":J11_20" function="internal">
        <lane id=":J11_20_0" index="0" speed="6.51" length="9.03" shape="889.60,592.00 892.05,591.65 893.80,590.60 894.85,588.85 895.20,586.40"/>
    </edge>
    <edge id=":J11_21" function="internal">
        <lane id=":J11_21_0" index="0" speed="11.11" length="52.20" shape="889.60,592.00 903.32,591.06 919.24,588.88 933.24,586.41 941.20,584.58"/>
    </edge>
    <edge id=":J11_22" function="internal">
        <lane id=":J11_22_0" index="0" speed="13.89" length="53.32" shape="889.60,592.00 942.92,592.00"/>
        <lane id=":J11_22_1" index="1" speed="13.89" length="53.32" shape="889.60,595.20 942.92,595.20"/>
        <lane id=":J11_22_2" index="2" speed="13.89" length="53.32" shape="889.60,598.40 942.92,598.40"/>
    </edge>
    <edge id=":J11_25" function="internal">
        <lane id=":J11_25_0" index="0" speed="9.84" length="4.01" shape="889.60,598.40 893.55,599.11"/>
    </edge>
    <edge id=":J11_31" function="internal">
        <lane id=":J11_31_0" index="0" speed="9.84" length="17.98" shape="893.55,599.11 894.85,599.35 898.60,602.20 900.85,606.95 901.60,613.60"/>
    </edge>
    <edge id=":J12_0" function="internal">
        <lane id=":J12_0_0" index="0" speed="6.51" length="9.03" shape="895.20,410.40 894.85,407.95 893.80,406.20 892.05,405.15 889.60,404.80"/>
    </edge>
    <edge id=":J12_1" function="internal">
        <lane id=":J12_1_0" index="0" speed="11.11" length="20.80" shape="895.20,410.40 895.20,389.60"/>
        <lane id=":J12_1_1" index="1" speed="11.11" length="20.80" shape="898.40,410.40 898.40,389.60"/>
    </edge>
    <edge id=":J12_3" function="internal">
        <lane id=":J12_3_0" index="0" speed="9.26" length="5.01" shape="898.40,410.40 899.11,405.44"/>
    </edge>
    <edge id=":J12_16" function="internal">
        <lane id=":J12_16_0" index="0" speed="9.26" length="14.34" shape="899.11,405.44 899.15,405.15 901.40,401.40 905.15,399.15 910.40,398.40"/>
    </edge>
    <edge id=":J12_4" function="internal">
        <lane id=":J12_4_0" index="0" speed="6.51" length="9.03" shape="910.40,404.80 907.95,405.15 906.20,406.20 905.15,407.95 904.80,410.40"/>
    </edge>
    <edge id=":J12_5" function="internal">
        <lane id=":J12_5_0" index="0" speed="11.11" length="20.80" shape="910.40,404.80 889.60,404.80"/>
        <lane id=":J12_5_1" index="1" speed="11.11" length="20.80" shape="910.40,401.60 889.60,401.60"/>
    </edge>
    <edge id=":J12_7" function="internal">
        <lane id=":J12_7_0" index="0" speed="9.26" length="5.01" shape="910.40,401.60 905.44,400.89"/>
    </edge>
    <edge id=":J12_17" function="internal">
        <lane id=":J12_17_0" index="0" speed="9.26" length="14.34" shape="905.44,400.89 905.15,400.85 901.40,398.60 899.15,394.85 898.40,389.60"/>
    </edge>
    <edge id=":J12_8" function="internal">
        <lane id=":J12_8_0" index="0" speed="6.51" length="9.03" shape="904.80,389.60 905.15,392.05 906.20,393.80 907.95,394.85 910.40,395.20"/>
    </edge>
    <edge id=":J12_9" function="internal">
        <lane id=":J12_9_0" index="0" speed="11.11" length="20.80" shape="904.80,389.60 904.80,410.40"/>
        <lane id=":J12_9_1" index="1" speed="11.11" length="20.80" shape="901.60,389.60 901.60,410.40"/>
    </edge>
    <edge id=":J12_11" function="internal">
        <lane id=":J12_11_0" index="0" speed="9.26" length="5.01" shape="901.60,389.60 900.89,394.56"/>
    </edge>
    <edge id=":J12_18" function="internal">
        <lane id=":J12_18_0" index="0" speed="9.26" length="14.34" shape="900.89,394.56 900.85,394.85 898.60,398.60 894.85,400.85 889.60,401.60"/>
    </edge>
    <edge id=":J12_12" function="internal">
        <lane id=":J12_12_0" index="0" speed="6.51" length="9.03" shape="889.60,395.20 892.05,394.85 893.80,393.80 894.85,392.05 895.20,389.60"/>
    </edge>
    <edge id=":J12_13" function="internal">
        <lane id=":J12_13_0" index="0" speed="11.11" length="20.80" shape="889.60,395.20 910.40,395.20"/>
        <lane id=":J12_13_1" index="1" speed="11.11" length="20.80" shape="889.60,398.40 910.40,398.40"/>
    </edge>
    <edge id=":J12_15" function="internal">
        <lane id=":J12_15_0" index="0" speed="9.26" length="5.01" shape="889.60,398.40 894.56,399.11"/>
    </edge>
    <edge id=":J12_19" function="internal">
        <lane id=":J12_19_0" index="0" speed="9.26" length="14.34" shape="894.56,399.11 894.85,399.15 898.60,401.40 900.85,405.15 901.60,410.40"/>
    </edge>
    <edge id=":J13_0" function="internal">
        <lane id=":J13_0_0" index="0" speed="6.51" length="9.03" shape="895.20,210.40 894.85,207.95 893.80,206.20 892.05,205.15 889.60,204.80"/>
    </edge>
    <edge id=":J13_1" function="internal">
        <lane id=":J13_1_0" index="0" speed="11.11" length="20.80" shape="895.20,210.40 895.20,189.60"/>
        <lane id=":J13_1_1" index="1" speed="11.11" length="20.80" shape="898.40,210.40 898.40,189.60"/>
    </edge>
    <edge id=":J13_3" function="internal">
        <lane id=":J13_3_0" index="0" speed="9.26" length="5.01" shape="898.40,210.40 899.11,205.44"/>
    </edge>
    <edge id=":J13_15" function="internal">
        <lane id=":J13_15_0" index="0" speed="9.26" length="14.34" shape="899.11,205.44 899.15,205.15 901.40,201.40 905.15,199.15 910.40,198.40"/>
    </edge>
    <edge id=":J13_4" function="internal">
        <lane id=":J13_4_0" index="0" speed="7.33" length="11.73" shape="910.40,201.60 907.95,202.15 906.20,203.80 905.15,206.55 904.80,210.40"/>
    </edge>
    <edge id=":J13_5" function="internal">
        <lane id=":J13_5_0" index="0" speed="9.72" length="20.94" shape="910.40,201.60 906.45,202.10 901.88,203.20 896.37,204.30 889.60,204.80"/>
        <lane id=":J13_5_1" index="1" speed="9.72" length="20.94" shape="910.40,201.60 889.60,201.60"/>
    </edge>
    <edge id=":J13_7" function="internal">
        <lane id=":J13_7_0" index="0" speed="9.26" length="7.32" shape="910.40,201.60 905.15,200.85 903.42,199.81"/>
    </edge>
    <edge id=":J13_16" function="internal">
        <lane id=":J13_16_0" index="0" speed="9.26" length="12.03" shape="903.42,199.81 901.40,198.60 899.15,194.85 898.40,189.60"/>
    </edge>
    <edge id=":J13_8" function="internal">
        <lane id=":J13_8_0" index="0" speed="7.33" length="11.73" shape="904.80,189.60 905.15,193.45 906.20,196.20 907.95,197.85 910.40,198.40"/>
    </edge>
    <edge id=":J13_9" function="internal">
        <lane id=":J13_9_0" index="0" speed="11.11" length="20.80" shape="904.80,189.60 904.80,210.40"/>
        <lane id=":J13_9_1" index="1" speed="11.11" length="20.80" shape="901.60,189.60 901.60,210.40"/>
    </edge>
    <edge id=":J13_11" function="internal">
        <lane id=":J13_11_0" index="0" speed="9.26" length="5.01" shape="901.60,189.60 900.89,194.56"/>
    </edge>
    <edge id=":J13_17" function="internal">
        <lane id=":J13_17_0" index="0" speed="9.26" length="14.34" shape="900.89,194.56 900.85,194.85 898.60,198.60 894.85,200.85 889.60,201.60"/>
    </edge>
    <edge id=":J13_12" function="internal">
        <lane id=":J13_12_0" index="0" speed="6.51" length="9.03" shape="889.60,195.20 892.05,194.85 893.80,193.80 894.85,192.05 895.20,189.60"/>
    </edge>
    <edge id=":J13_13" function="internal">
        <lane id=":J13_13_0" index="0" speed="9.72" length="21.09" shape="889.60,195.20 896.37,195.70 901.88,196.80 906.45,197.90 910.40,198.40"/>
    </edge>
    <edge id=":J13_14" function="internal">
        <lane id=":J13_14_0" index="0" speed="9.26" length="5.01" shape="889.60,198.40 894.56,199.11"/>
    </edge>
    <edge id=":J13_18" function="internal">
        <lane id=":J13_18_0" index="0" speed="9.26" length="14.34" shape="894.56,199.11 894.85,199.15 898.60,201.40 900.85,205.15 901.60,210.40"/>
    </edge>
    <edge id=":J14_0" function="internal">
        <lane id=":J14_0_0" index="0" speed="6.17" length="6.04" shape="1051.60,547.69 1051.39,549.28 1050.78,550.56 1049.75,551.55 1048.32,552.25"/>
    </edge>
    <edge id=":J14_1" function="internal">
        <lane id=":J14_1_0" index="0" speed="3.95" length="2.01" shape="1047.31,549.21 1047.78,548.98 1048.13,548.65 1048.33,548.22 1048.40,547.69"/>
    </edge>
    <edge id=":J15_0" function="internal">
        <lane id=":J15_0_0" index="0" speed="7.33" length="11.73" shape="1048.40,410.40 1047.85,407.95 1046.20,406.20 1043.45,405.15 1039.60,404.80"/>
    </edge>
    <edge id=":J15_1" function="internal">
        <lane id=":J15_1_0" index="0" speed="9.72" length="20.94" shape="1048.40,410.40 1047.90,406.45 1046.80,401.88 1045.70,396.37 1045.20,389.60"/>
        <lane id=":J15_1_1" index="1" speed="9.72" length="20.94" shape="1048.40,410.40 1048.40,389.60"/>
    </edge>
    <edge id=":J15_3" function="internal">
        <lane id=":J15_3_0" index="0" speed="9.26" length="7.32" shape="1048.40,410.40 1049.15,405.15 1050.19,403.42"/>
    </edge>
    <edge id=":J15_15" function="internal">
        <lane id=":J15_15_0" index="0" speed="9.26" length="12.03" shape="1050.19,403.42 1051.40,401.40 1055.15,399.15 1060.40,398.40"/>
    </edge>
    <edge id=":J15_4" function="internal">
        <lane id=":J15_4_0" index="0" speed="7.33" length="11.73" shape="1060.40,404.80 1056.55,405.15 1053.80,406.20 1052.15,407.95 1051.60,410.40"/>
    </edge>
    <edge id=":J15_5" function="internal">
        <lane id=":J15_5_0" index="0" speed="11.11" length="20.80" shape="1060.40,404.80 1039.60,404.80"/>
        <lane id=":J15_5_1" index="1" speed="11.11" length="20.80" shape="1060.40,401.60 1039.60,401.60"/>
    </edge>
    <edge id=":J15_7" function="internal">
        <lane id=":J15_7_0" index="0" speed="9.26" length="5.01" shape="1060.40,401.60 1055.44,400.89"/>
    </edge>
    <edge id=":J15_16" function="internal">
        <lane id=":J15_16_0" index="0" speed="9.26" length="14.34" shape="1055.44,400.89 1055.15,400.85 1051.40,398.60 1049.15,394.85 1048.40,389.60"/>
    </edge>
    <edge id=":J15_8" function="internal">
        <lane id=":J15_8_0" index="0" speed="6.51" length="9.03" shape="1054.80,389.60 1055.15,392.05 1056.20,393.80 1057.95,394.85 1060.40,395.20"/>
    </edge>
    <edge id=":J15_9" function="internal">
        <lane id=":J15_9_0" index="0" speed="9.72" length="21.09" shape="1054.80,389.60 1054.30,396.37 1053.20,401.88 1052.10,406.45 1051.60,410.40"/>
    </edge>
    <edge id=":J15_10" function="internal">
        <lane id=":J15_10_0" index="0" speed="9.26" length="5.01" shape="1051.60,389.60 1050.89,394.56"/>
    </edge>
    <edge id=":J15_17" function="internal">
        <lane id=":J15_17_0" index="0" speed="9.26" length="14.34" shape="1050.89,394.56 1050.85,394.85 1048.60,398.60 1044.85,400.85 1039.60,401.60"/>
    </edge>
    <edge id=":J15_11" function="internal">
        <lane id=":J15_11_0" index="0" speed="6.51" length="9.03" shape="1039.60,395.20 1042.05,394.85 1043.80,393.80 1044.85,392.05 1045.20,389.60"/>
    </edge>
    <edge id=":J15_12" function="internal">
        <lane id=":J15_12_0" index="0" speed="11.11" length="20.80" shape="1039.60,395.20 1060.40,395.20"/>
        <lane id=":J15_12_1" index="1" speed="11.11" length="20.80" shape="1039.60,398.40 1060.40,398.40"/>
    </edge>
    <edge id=":J15_14" function="internal">
        <lane id=":J15_14_0" index="0" speed="9.26" length="5.01" shape="1039.60,398.40 1044.56,399.11"/>
    </edge>
    <edge id=":J15_18" function="internal">
        <lane id=":J15_18_0" index="0" speed="9.26" length="14.34" shape="1044.56,399.11 1044.85,399.15 1048.60,401.40 1050.85,405.15 1051.60,410.40"/>
    </edge>
    <edge id=":J16_0" function="internal">
        <lane id=":J16_0_0" index="0" speed="7.33" length="11.73" shape="1045.20,210.40 1044.85,206.55 1043.80,203.80 1042.05,202.15 1039.60,201.60"/>
    </edge>
    <edge id=":J16_1" function="internal">
        <lane id=":J16_1_0" index="0" speed="9.26" length="19.35" shape="1048.40,210.40 1049.15,205.15 1051.40,201.40 1055.15,199.15 1060.40,198.40"/>
    </edge>
    <edge id=":J16_2" function="internal">
        <lane id=":J16_2_0" index="0" speed="6.51" length="9.03" shape="1060.40,204.80 1057.95,205.15 1056.20,206.20 1055.15,207.95 1054.80,210.40"/>
    </edge>
    <edge id=":J16_3" function="internal">
        <lane id=":J16_3_0" index="0" speed="9.72" length="20.80" shape="1060.40,201.60 1039.60,201.60"/>
    </edge>
    <edge id=":J16_4" function="internal">
        <lane id=":J16_4_0" index="0" speed="9.72" length="20.94" shape="1039.60,198.40 1043.55,197.90 1048.12,196.80 1053.63,195.70 1060.40,195.20"/>
        <lane id=":J16_4_1" index="1" speed="9.72" length="20.94" shape="1039.60,198.40 1060.40,198.40"/>
    </edge>
    <edge id=":J16_6" function="internal">
        <lane id=":J16_6_0" index="0" speed="9.26" length="5.01" shape="1039.60,198.40 1044.56,199.11"/>
    </edge>
    <edge id=":J16_7" function="internal">
        <lane id=":J16_7_0" index="0" speed="9.26" length="14.34" shape="1044.56,199.11 1044.85,199.15 1048.60,201.40 1050.85,205.15 1051.60,210.40"/>
    </edge>
    <edge id=":J17_0" function="internal">
        <lane id=":J17_0_0" index="0" speed="13.89" length="20.80" shape="1210.40,608.00 1189.60,608.00"/>
        <lane id=":J17_0_1" index="1" speed="13.89" length="20.80" shape="1210.40,604.80 1189.60,604.80"/>
        <lane id=":J17_0_2" index="2" speed="13.89" length="20.80" shape="1210.40,601.60 1189.60,601.60"/>
    </edge>
    <edge id=":J17_3" function="internal">
        <lane id=":J17_3_0" index="0" speed="9.84" length="4.01" shape="1210.40,601.60 1206.45,600.89"/>
    </edge>
    <edge id=":J17_12" function="internal">
        <lane id=":J17_12_0" index="0" speed="9.84" length="17.98" shape="1206.45,600.89 1205.15,600.65 1201.40,597.80 1199.15,593.05 1198.40,586.40"/>
    </edge>
    <edge id=":J17_4" function="internal">
        <lane id=":J17_4_0" index="0" speed="6.51" length="9.03" shape="1204.80,586.40 1205.15,588.85 1206.20,590.60 1207.95,591.65 1210.40,592.00"/>
        <lane id=":J17_4_1" index="1" speed="8.00" length="14.19" shape="1201.60,586.40 1202.15,590.25 1203.80,593.00 1206.55,594.65 1210.40,595.20"/>
    </edge>
    <edge id=":J17_6" function="internal">
        <lane id=":J17_6_0" index="0" speed="10.41" length="24.73" shape="1201.60,586.40 1200.85,594.45 1198.60,600.20 1194.85,603.65 1189.60,604.80"/>
        <lane id=":J17_6_1" index="1" speed="9.84" length="21.99" shape="1201.60,586.40 1200.85,593.05 1198.60,597.80 1194.85,600.65 1189.60,601.60"/>
    </edge>
    <edge id=":J17_8" function="internal">
        <lane id=":J17_8_0" index="0" speed="6.51" length="9.03" shape="1189.60,592.00 1192.05,591.65 1193.80,590.60 1194.85,588.85 1195.20,586.40"/>
    </edge>
    <edge id=":J17_9" function="internal">
        <lane id=":J17_9_0" index="0" speed="13.89" length="20.80" shape="1189.60,592.00 1210.40,592.00"/>
        <lane id=":J17_9_1" index="1" speed="13.89" length="20.80" shape="1189.60,595.20 1210.40,595.20"/>
        <lane id=":J17_9_2" index="2" speed="13.89" length="20.80" shape="1189.60,598.40 1210.40,598.40"/>
    </edge>
    <edge id=":J18_0" function="internal">
        <lane id=":J18_0_0" index="0" speed="6.51" length="9.03" shape="1195.20,410.40 1194.85,407.95 1193.80,406.20 1192.05,405.15 1189.60,404.80"/>
    </edge>
    <edge id=":J18_1" function="internal">
        <lane id=":J18_1_0" index="0" speed="11.11" length="20.80" shape="1195.20,410.40 1195.20,389.60"/>
        <lane id=":J18_1_1" index="1" speed="11.11" length="20.80" shape="1198.40,410.40 1198.40,389.60"/>
    </edge>
    <edge id=":J18_3" function="internal">
        <lane id=":J18_3_0" index="0" speed="9.26" length="5.01" shape="1198.40,410.40 1199.11,405.44"/>
    </edge>
    <edge id=":J18_16" function="internal">
        <lane id=":J18_16_0" index="0" speed="9.26" length="14.34" shape="1199.11,405.44 1199.15,405.15 1201.40,401.40 1205.15,399.15 1210.40,398.40"/>
    </edge>
    <edge id=":J18_4" function="internal">
        <lane id=":J18_4_0" index="0" speed="6.51" length="9.03" shape="1210.40,404.80 1207.95,405.15 1206.20,406.20 1205.15,407.95 1204.80,410.40"/>
    </edge>
    <edge id=":J18_5" function="internal">
        <lane id=":J18_5_0" index="0" speed="11.11" length="20.80" shape="1210.40,404.80 1189.60,404.80"/>
        <lane id=":J18_5_1" index="1" speed="11.11" length="20.80" shape="1210.40,401.60 1189.60,401.60"/>
    </edge>
    <edge id=":J18_7" function="internal">
        <lane id=":J18_7_0" index="0" speed="9.26" length="5.01" shape="1210.40,401.60 1205.44,400.89"/>
    </edge>
    <edge id=":J18_17" function="internal">
        <lane id=":J18_17_0" index="0" speed="9.26" length="14.34" shape="1205.44,400.89 1205.15,400.85 1201.40,398.60 1199.15,394.85 1198.40,389.60"/>
    </edge>
    <edge id=":J18_8" function="internal">
        <lane id=":J18_8_0" index="0" speed="6.51" length="9.03" shape="1204.80,389.60 1205.15,392.05 1206.20,393.80 1207.95,394.85 1210.40,395.20"/>
    </edge>
    <edge id=":J18_9" function="internal">
        <lane id=":J18_9_0" index="0" speed="11.11" length="20.80" shape="1204.80,389.60 1204.80,410.40"/>
        <lane id=":J18_9_1" index="1" speed="11.11" length="20.80" shape="1201.60,389.60 1201.60,410.40"/>
    </edge>
    <edge id=":J18_11" function="internal">
        <lane id=":J18_11_0" index="0" speed="9.26" length="5.01" shape="1201.60,389.60 1200.89,394.56"/>
    </edge>
    <edge id=":J18_18" function="internal">
        <lane id=":J18_18_0" index="0" speed="9.26" length="14.34" shape="1200.89,394.56 1200.85,394.85 1198.60,398.60 1194.85,400.85 1189.60,401.60"/>
    </edge>
    <edge id=":J18_12" function="internal">
        <lane id=":J18_12_0" index="0" speed="6.51" length="9.03" shape="1189.60,395.20 1192.05,394.85 1193.80,393.80 1194.85,392.05 1195.20,389.60"/>
    </edge>
    <edge id=":J18_13" function="internal">
        <lane id=":J18_13_0" index="0" speed="11.11" length="20.80" shape="1189.60,395.20 1210.40,395.20"/>
        <lane id=":J18_13_1" index="1" speed="11.11" length="20.80" shape="1189.60,398.40 1210.40,398.40"/>
    </edge>
    <edge id=":J18_15" function="internal">
        <lane id=":J18_15_0" index="0" speed="9.26" length="5.01" shape="1189.60,398.40 1194.56,399.11"/>
    </edge>
    <edge id=":J18_19" function="internal">
        <lane id=":J18_19_0" index="0" speed="9.26" length="14.34" shape="1194.56,399.11 1194.85,399.15 1198.60,401.40 1200.85,405.15 1201.60,410.40"/>
    </edge>
    <edge id=":J19_0" function="internal">
        <lane id=":J19_0_0" index="0" speed="6.51" length="9.03" shape="1195.20,210.40 1194.85,207.95 1193.80,206.20 1192.05,205.15 1189.60,204.80"/>
    </edge>
    <edge id=":J19_1" function="internal">
        <lane id=":J19_1_0" index="0" speed="9.72" length="21.09" shape="1195.20,210.40 1195.70,203.63 1196.80,198.12 1197.90,193.55 1198.40,189.60"/>
    </edge>
    <edge id=":J19_2" function="internal">
        <lane id=":J19_2_0" index="0" speed="9.26" length="5.01" shape="1198.40,210.40 1199.11,205.44"/>
    </edge>
    <edge id=":J19_15" function="internal">
        <lane id=":J19_15_0" index="0" speed="9.26" length="14.34" shape="1199.11,205.44 1199.15,205.15 1201.40,201.40 1205.15,199.15 1210.40,198.40"/>
    </edge>
    <edge id=":J19_3" function="internal">
        <lane id=":J19_3_0" index="0" speed="6.51" length="9.03" shape="1210.40,204.80 1207.95,205.15 1206.20,206.20 1205.15,207.95 1204.80,210.40"/>
    </edge>
    <edge id=":J19_4" function="internal">
        <lane id=":J19_4_0" index="0" speed="11.11" length="20.80" shape="1210.40,204.80 1189.60,204.80"/>
        <lane id=":J19_4_1" index="1" speed="11.11" length="20.80" shape="1210.40,201.60 1189.60,201.60"/>
    </edge>
    <edge id=":J19_6" function="internal">
        <lane id=":J19_6_0" index="0" speed="9.26" length="5.01" shape="1210.40,201.60 1205.44,200.89"/>
    </edge>
    <edge id=":J19_16" function="internal">
        <lane id=":J19_16_0" index="0" speed="9.26" length="14.34" shape="1205.44,200.89 1205.15,200.85 1201.40,198.60 1199.15,194.85 1198.40,189.60"/>
    </edge>
    <edge id=":J19_7" function="internal">
        <lane id=":J19_7_0" index="0" speed="7.33" length="11.73" shape="1201.60,189.60 1202.15,192.05 1203.80,193.80 1206.55,194.85 1210.40,195.20"/>
    </edge>
    <edge id=":J19_8" function="internal">
        <lane id=":J19_8_0" index="0" speed="9.72" length="20.94" shape="1201.60,189.60 1202.10,193.55 1203.20,198.12 1204.30,203.63 1204.80,210.40"/>
        <lane id=":J19_8_1" index="1" speed="9.72" length="20.94" shape="1201.60,189.60 1201.60,210.40"/>
    </edge>
    <edge id=":J19_10" function="internal">
        <lane id=":J19_10_0" index="0" speed="9.26" length="7.32" shape="1201.60,189.60 1200.85,194.85 1199.81,196.58"/>
    </edge>
    <edge id=":J19_17" function="internal">
        <lane id=":J19_17_0" index="0" speed="9.26" length="12.03" shape="1199.81,196.58 1198.60,198.60 1194.85,200.85 1189.60,201.60"/>
    </edge>
    <edge id=":J19_11" function="internal">
        <lane id=":J19_11_0" index="0" speed="7.33" length="11.73" shape="1189.60,195.20 1193.45,194.85 1196.20,193.80 1197.85,192.05 1198.40,189.60"/>
    </edge>
    <edge id=":J19_12" function="internal">
        <lane id=":J19_12_0" index="0" speed="11.11" length="20.80" shape="1189.60,195.20 1210.40,195.20"/>
        <lane id=":J19_12_1" index="1" speed="11.11" length="20.80" shape="1189.60,198.40 1210.40,198.40"/>
    </edge>
    <edge id=":J19_14" function="internal">
        <lane id=":J19_14_0" index="0" speed="9.26" length="5.01" shape="1189.60,198.40 1194.56,199.11"/>
    </edge>
    <edge id=":J19_18" function="internal">
        <lane id=":J19_18_0" index="0" speed="9.26" length="14.34" shape="1194.56,199.11 1194.85,199.15 1198.60,201.40 1200.85,205.15 1201.60,210.40"/>
    </edge>
    <edge id=":J2_0" function="internal">
        <lane id=":J2_0_0" index="0" speed="6.51" length="9.03" shape="292.00,413.60 291.65,411.15 290.60,409.40 288.85,408.35 286.40,408.00"/>
    </edge>
    <edge id=":J2_1" function="internal">
        <lane id=":J2_1_0" index="0" speed="13.89" length="27.20" shape="292.00,413.60 292.00,386.40"/>