<edges>
  <edge id="E1_J1" from="E1" to="J1" type="arterial"/>
  <edge id="J1_E1" from="J1" to="E1" type="arterial"/>
  <edge id="E2_J2" from="E2" to="J2" type="arterial"/>
  <edge id="J2_E2" from="J2" to="E2" type="arterial"/>
  <edge id="E3_J3" from="E3" to="J3" type="collector"/>
  <edge id="J3_E3" from="J3" to="E3" type="collector"/>
  <edge id="E4_J3" from="E4" to="J3" type="collector"/>
  <edge id="J3_E4" from="J3" to="E4" type="collector"/>
  <edge id="E5_J6" from="E5" to="J6" type="collector"/>
  <edge id="J6_E5" from="J6" to="E5" type="collector"/>
  <edge id="E6_J13" from="E6" to="J13" type="collector"/>
  <edge id="J13_E6" from="J13" to="E6" type="collector"/>
  <edge id="E7_J19" from="E7" to="J19" type="local"/>
  <edge id="J19_E7" from="J19" to="E7" type="local"/>
  <edge id="E8_J19" from="E8" to="J19" type="collector"/>
  <edge id="J19_E8" from="J19" to="E8" type="collector"/>
  <edge id="E9_J18" from="E9" to="J18" type="collector"/>
  <edge id="J18_E9" from="J18" to="E9" type="collector"/>
  <edge id="E10_J17" from="E10" to="J17" type="arterial"/>
  <edge id="J17_E10" from="J17" to="E10" type="arterial"/>
  <edge id="E11_J11" from="E11" to="J11" type="collector"/>
  <edge id="J11_E11" from="J11" to="E11" type="collector"/>
  <edge id="E12_J4" from="E12" to="J4" type="collector"/>
  <edge id="J4_E12" from="J4" to="E12" type="collector"/>
  <edge id="J1_J2" from="J1" to="J2" type="arterial"/>
  <edge id="J2_J1" from="J2" to="J1" type="arterial"/>
  <edge id="J2_J3" from="J2" to="J3" type="arterial"/>
  <edge id="J3_J2" from="J3" to="J2" type="arterial"/>
  <edge id="J1_J4" from="J1" to="J4" type="arterial"/>
  <edge id="J4_J1" from="J4" to="J1" type="arterial"/>
  <edge id="J4_J7" from="J4" to="J7" type="arterial"/>
  <edge id="J7_J4" from="J7" to="J4" type="arterial"/>
  <edge id="J7_J11" from="J7" to="J11" type="arterial"/>
  <edge id="J11_J7" from="J11" to="J7" type="arterial"/>
  <edge id="J11_J17" from="J11" to="J17" type="arterial"/>
  <edge id="J17_J11" from="J17" to="J11" type="arterial"/>
  <edge id="J2_J5" from="J2" to="J5" type="collector"/>
  <edge id="J5_J2" from="J5" to="J2" type="collector"/>
  <edge id="J3_J6" from="J3" to="J6" type="collector"/>
  <edge id="J6_J3" from="J6" to="J3" type="collector"/>
  <edge id="J4_J5" from="J4" to="J5" type="collector"/>
  <edge id="J5_J4" from="J5" to="J4" type="collector"/>
  <edge id="J5_J6" from="J5" to="J6" type="collector"/>
  <edge id="J6_J5" from="J6" to="J5" type="collector"/>
  <edge id="J5_J8" from="J5" to="J8" type="collector"/>
  <edge id="J8_J5" from="J8" to="J5" type="collector"/>
  <edge id="J6_J9" from="J6" to="J9" type="collector"/>
  <edge id="J9_J6" from="J9" to="J6" type="collector"/>
  <edge id="J7_J8" from="J7" to="J8" type="collector"/>
  <edge id="J8_J7" from="J8" to="J7" type="collector"/>
  <edge id="J8_J12" from="J8" to="J12" type="collector"/>
  <edge id="J12_J8" from="J12" to="J8" type="collector"/>
  <edge id="J9_J13" from="J9" to="J13" type="collector"/>
  <edge id="J13_J9" from="J13" to="J9" type="collector"/>
  <edge id="J9_J10" from="J9" to="J10" type="local"/>
  <edge id="J10_J9" from="J10" to="J9" type="local"/>
  <edge id="J11_J12" from="J11" to="J12" type="collector"/>
  <edge id="J12_J11" from="J12" to="J11" type="collector"/>
  <edge id="J12_J13" from="J12" to="J13" type="collector"/>
  <edge id="J13_J12" from="J13" to="J12" type="collector"/>
  <edge id="J12_J15" from="J12" to="J15" type="collector"/>
  <edge id="J15_J12" from="J15" to="J12" type="collector"/>
  <edge id="J13_J16" from="J13" to="J16" type="local"/>
  <edge id="J16_J13" from="J16" to="J13" type="local"/>
  <edge id="J14_J11" from="J14" to="J11" type="local"/>
  <edge id="J11_J14" from="J11" to="J14" type="local"/>
  <edge id="J14_J15" from="J14" to="J15" type="local"/>
  <edge id="J15_J14" from="J15" to="J14" type="local"/>
  <edge id="J15_J16" from="J15" to="J16" type="collector"/>
  <edge id="J16_J15" from="J16" to="J15" type="collector"/>
  <edge id="J15_J18" from="J15" to="J18" type="collector"/>
  <edge id="J18_J15" from="J18" to="J15" type="collector"/>
  <edge id="J16_J19" from="J16" to="J19" type="collector"/>
  <edge id="J19_J16" from="J19" to="J16" type="collector"/>
  <edge id="J17_J18" from="J17" to="J18" type="collector"/>
  <edge id="J18_J17" from="J18" to="J17" type="collector"/>
  <edge id="J18_J19" from="J18" to="J19" type="collector"/>
  <edge id="J19_J18" from="J19" to="J18" type="collector"/>
  <edge id="J5_J20" from="J5" to="J20" type="local"/>
  <edge id="J20_J5" from="J20" to="J5" type="local"/>
  <edge id="J8_J20" from="J8" to="J20" type="local"/>
  <edge id="J20_J8" from="J20" to="J8" type="local"/>
</edges>