<nodes>
  <node id="E1" x="-300" y="400" type="priority"/>
  <node id="E2" x="-300" y="200" type="priority"/>
  <node id="E3" x="-300" y="0" type="priority"/>
  <node id="E4" x="0" y="-200" type="priority"/>
  <node id="E5" x="300" y="-200" type="priority"/>
  <node id="E6" x="600" y="-200" type="priority"/>
  <node id="E7" x="900" y="-200" type="priority"/>
  <node id="E8" x="1100" y="0" type="priority"/>
  <node id="E9" x="1100" y="200" type="priority"/>
  <node id="E10" x="1100" y="400" type="priority"/>
  <node id="E11" x="600" y="600" type="priority"/>
  <node id="E12" x="200" y="600" type="priority"/>
  <node id="J1" x="0" y="400" type="traffic_light"/>
  <node id="J2" x="0" y="200" type="traffic_light"/>
  <node id="J3" x="0" y="0" type="traffic_light"/>
  <node id="J4" x="200" y="400" type="traffic_light"/>
  <node id="J5" x="200" y="200" type="traffic_light"/>
  <node id="J6" x="200" y="0" type="traffic_light"/>
  <node id="J7" x="450" y="400" type="traffic_light"/>
  <node id="J8" x="450" y="200" type="traffic_light"/>
  <node id="J9" x="450" y="0" type="traffic_light"/>
  <node id="J10" x="450" y="130" type="priority"/>
  <node id="J11" x="600" y="400" type="traffic_light"/>
  <node id="J12" x="600" y="200" type="traffic_light"/>
  <node id="J13" x="600" y="0" type="traffic_light"/>
  <node id="J14" x="750" y="350" type="priority"/>
  <node id="J15" x="750" y="200" type="traffic_light"/>
  <node id="J16" x="750" y="0" type="traffic_light"/>
  <node id="J17" x="900" y="400" type="traffic_light"/>
  <node id="J18" x="900" y="200" type="traffic_light"/>
  <node id="J19" x="900" y="0" type="traffic_light"/>
  <node id="J20" x="350" y="300" type="priority"/>
</nodes>