<configuration>
    <input>
        <net-file value="city_network.net.xml"/>
        <route-files value="city_routes.rou.xml"/>
    </input>
    <time>
        <begin value="0"/>
        <end value="3600"/>
    </time>
</configuration>